Circuit: * C:\Users\Jaden\Documents\GitHub\DCMotorControllerElectronics\simulation\h-bridge.asc

Limiting rise time of source v4 to 0.05
Limiting fall time of source v4 to 0.05
Limiting rise time of source v3 to 0.05
Limiting fall time of source v3 to 0.05
Limiting rise time of source v2 to 0.05
Limiting fall time of source v2 to 0.05
WARNING: Node NC_02 is floating.

WARNING: Less than two connections to node NC_01.  This node is used by V3.
WARNING: Less than two connections to node NC_02.  This node is used by V3.
Direct Newton iteration for .op point succeeded.

Date: Fri Mar  6 13:49:41 2020
Total elapsed time: 0.277 seconds.

tnom = 27
temp = 27
method = modified trap
totiter = 7612
traniter = 7604
tranpoints = 2469
accept = 2015
rejected = 454
matrix size = 21
fillins = 4
solver = Normal
Matrix Compiler1:      76 opcodes  1.0/[0.2]/1.2
Matrix Compiler2: 1.68 KB object code size  0.3/0.4/[0.2]

