Circuit: * I:\GitHub\DCMotorControllerElectronics\simulation\motor_driver_logic.asc

Limiting rise time of source v2 to 0.0125
Limiting fall time of source v2 to 0.0125
Limiting rise time of source v1 to 0.05
Limiting fall time of source v1 to 0.05
WARNING: Less than two connections to node L_OUT.  This node is used by A1.
WARNING: Less than two connections to node R_OUT.  This node is used by A2.
Direct Newton iteration for .op point succeeded.

Date: Fri Mar  6 10:24:50 2020
Total elapsed time: 0.020 seconds.

tnom = 27
temp = 27
method = modified trap
totiter = 2423
traniter = 2420
tranpoints = 1199
accept = 1165
rejected = 34
matrix size = 7
fillins = 0
solver = Normal
Matrix Compiler1: 124 bytes object code size  0.0/0.0/[0.0]
Matrix Compiler2: 305 bytes object code size  0.0/0.0/[0.0]

